66
Lattice="10.88 0.0 0.0 0.0 10.88 0.0 0.0 0.0 10.88" Properties=species:S:1:pos:R:3:Z:I:1:forces:R:3 cutoff=-1.0 energy=-10762.4350386 nneightol=1.2 pbc="T T T"
Si     -4.36041821      -2.33845871      -5.17466325       14       0.00003055       0.00138311       0.00025754 
Si     -4.26222068      -2.21498037       0.24552347       14      -0.00019754       0.00117711       0.00271766 
Si     -4.26959782       3.21805622      -5.22401628       14      -0.00020544       0.00169242       0.00088813 
Si     -4.26955395       3.17498449       0.57943391       14       0.00180951      -0.00325791      -0.00525517 
Si      1.15182104      -2.23149860      -5.23110378       14       0.00123889       0.00110383       0.00080350 
Si      1.18622398      -2.35750369       0.70024943       14      -0.00211838       0.00423924       0.00258818 
Si      1.25173871       3.28674587      -5.17482914       14       0.00188231      -0.00026554      -0.00302686 
Si      1.13442768       3.21060438       0.24614013       14      -0.00155334      -0.00041952       0.00242418 
Si     -7.01015724      -4.95522301      -5.15200232       14       0.00055258      -0.00061787       0.00159784 
Si     -6.93612028      -5.01239084       0.25682710       14       0.00072774       0.00067264       0.00170387 
Si     -6.99338790       0.49474068      -5.19411115       14      -0.00008190       0.00115217      -0.00026261 
Si     -6.97081514       0.51837419       0.25333482       14      -0.00592178      -0.00231968      -0.00269615 
Si     -1.54483688      -4.94394746      -5.16743739       14       0.00044340       0.00028641       0.00085888 
Si     -1.59164621      -4.97190588       0.22895663       14       0.00002281      -0.00139301       0.00298912 
Si     -1.57511205       0.48196238      -5.21284678       14       0.00169736      -0.00056212      -0.00125892 
Si     -2.56949405       1.47658895       0.66040569       14      -0.00023154      -0.00102085       0.00094761 
Si     -4.25467567      -4.99078526      -2.40535782       14      -0.00131832       0.00151174       0.00012220 
Si     -4.29419303      -4.90639178       3.01887125       14       0.00012567       0.00144441       0.00202078 
Si     -4.30833902       0.43642683      -2.61923952       14       0.00093765       0.00026271      -0.00112707 
Si     -4.29914235       0.44013680       3.03153775       14      -0.00087384       0.00019585      -0.00065683 
Si      1.13779867      -4.91789239      -2.42963651       14      -0.00083206       0.00078284      -0.00202392 
Si      1.16663109      -5.00517569       3.02891376       14       0.00275878      -0.00055918      -0.00046054 
Si      1.14135408       0.59484648      -2.62003848       14      -0.00050573       0.00167543       0.00105712 
Si      1.12331154       0.54162543       2.99330755       14      -0.00071172       0.00243576       0.00154486 
Si     -7.01519206      -2.22662356      -2.43374724       14      -0.00110546       0.00129961      -0.00110479 
Si     -6.93943205      -2.26054395       3.02076800       14       0.00073136      -0.00219687       0.00168658 
Si     -6.94470588       3.20744239      -2.43183447       14       0.00050497       0.00032861       0.00061338 
Si     -7.07385275       3.23870946       3.03381955       14       0.00245518      -0.00220515      -0.00243966 
Si     -1.63361807      -2.23737795      -2.57926163       14      -0.00220275      -0.00112552       0.00246442 
Si     -1.62521239      -2.21895385       3.01767258       14       0.00087459       0.00022113      -0.00281214 
Si     -1.51246306       3.25898111      -2.58201348       14       0.00098879       0.00035754      -0.00174655 
Si     -1.51504960       3.22047297       3.01131370       14      -0.00041339       0.00034328       0.00166154 
Si     -2.94575563      -6.28756982      -3.84634731       14      -0.00060556       0.00133229       0.00106879 
Si     -2.88997802      -6.23386772       1.72297776       14      -0.00414486      -0.00142682      -0.00100825 
Si     -2.99790494      -0.94476958      -3.97124462       14       0.00255053       0.00150062       0.00066581 
Si     -2.89219876      -0.81546003       1.55934088       14       0.00262056       0.00213648      -0.00160138 
Si      2.55568517      -6.27535689      -3.73875683       14      -0.00125074      -0.00339074      -0.00048336 
Si      2.50392624      -6.31229833       1.61107035       14       0.00100781      -0.00051233       0.00199222 
Si      2.51915026      -0.88754592      -3.88256836       14      -0.00116518       0.00044235      -0.00180700 
Si      2.61939096      -0.79822829       1.78101136       14       0.00119032       0.00228953       0.00512045 
Si     -5.66003861      -3.66081621      -3.74844475       14       0.00029209       0.00212671      -0.00198294 
Si     -5.61938066      -3.58694374       1.60710967       14       0.00013139       0.00133021       0.00038802 
Si     -5.64597811       1.88598996      -3.86794956       14      -0.00009680       0.00196549       0.00088613 
Si     -5.72630607       1.82955579       1.77541648       14      -0.00127688      -0.00152855      -0.00567221 
Si     -0.17572035      -3.57058482      -3.83458059       14       0.00028435       0.00008530       0.00106520 
Si     -0.33068311      -3.74253460       1.77968129       14      -0.00012230      -0.00303721       0.00118261 
Si     -0.19367387       1.96098043      -4.00022785       14       0.00085269      -0.00119744      -0.00139882 
Si     -0.26422771       1.80616896       1.52950325       14      -0.00176398      -0.00337957      -0.00239907 
Si     -2.93899138      -3.59306621      -6.49725868       14      -0.00150657       0.00116590       0.00017383 
Si     -2.90931803      -3.56494991      -1.11283211       14       0.00070640      -0.00217117       0.00124830 
Si     -2.91323873       1.84179299      -6.57125849       14      -0.00184971      -0.00140252       0.00346686 
Si     -2.45965075       1.38426928      -1.60069484       14      -0.00052905       0.00147427       0.00205542 
Si      2.53186177      -3.60782474      -6.53953127       14      -0.00018079      -0.00072331       0.00095699 
Si      2.49686224      -3.61434997      -1.01497231       14       0.00128718      -0.00031067      -0.00027386 
Si      2.49795893       1.86184583      -6.50705325       14       0.00105467      -0.00020834       0.00068152 
Si      2.50737699       1.87624507      -1.11810003       14      -0.00303963       0.00356737      -0.00028372 
Si     -5.66062311      -6.29335752      -6.53657595       14      -0.00285626      -0.00002229      -0.00112691 
Si     -5.51288892      -6.43357974      -1.02990697       14       0.00159872       0.00102068       0.00107448 
Si     -5.63010561      -0.91557728      -6.48557421       14      -0.00145913       0.00040117      -0.00114535 
Si     -5.59214508      -0.84261308      -1.12181790       14       0.00357761      -0.00180543       0.00099669 
Si     -0.16712788      -6.32457816      -6.48628470       14      -0.00057228       0.00188855      -0.00039030 
Si     -0.21639033      -6.31880690      -1.11701757       14      -0.00042446       0.00102719      -0.00082094 
Si     -0.21545338      -0.86343466      -6.56713329       14       0.00002665      -0.00147987      -0.00168635 
Si     -0.80246386      -0.28556342      -1.62290724       14       0.00111517       0.00089576       0.00145280 
Si     -0.54747281      -0.56408209       0.66653095       14       0.00301264      -0.00071819      -0.00126301 
Si      2.18463854      -0.94898245      -0.96942871       14       0.00202649      -0.00795807      -0.00520882 
