2
Lattice="2.95 0.0 0.0 -1.4749999999999994 2.5547749411640948 0.0 0.0 0.0 4.6846000000000005" Properties=species:S:1:pos:R:3:Z:I:1:forces:R:3 energy=-12.1276972085 pbc="T T T"
Ti       0.01972284      -0.00741214       0.00206952       22       0.00003266      -0.00004778       0.00000067 
Ti       0.00047460       1.70687125       2.34436599       22      -0.00003266       0.00004778      -0.00000067 
